Version 4
SHEET 1 952 752
WIRE 144 -304 -112 -304
WIRE 384 -304 144 -304
WIRE 144 -224 144 -304
WIRE 384 -224 384 -304
WIRE -112 -160 -112 -224
WIRE 144 -96 144 -144
WIRE 144 -96 32 -96
WIRE 384 -96 384 -144
WIRE 480 -96 384 -96
WIRE 16 64 -32 64
WIRE 144 80 144 -96
WIRE 384 80 384 -96
WIRE 16 128 16 64
WIRE 16 128 -176 128
WIRE 80 128 16 128
WIRE 528 128 528 64
WIRE 528 128 448 128
WIRE 624 128 528 128
WIRE 208 176 208 128
WIRE 208 176 144 176
WIRE 320 176 320 128
WIRE 384 176 320 176
WIRE -176 256 -176 208
WIRE 624 256 624 208
WIRE 208 320 208 256
WIRE 272 320 208 320
WIRE 320 320 320 256
WIRE 320 320 272 320
WIRE 272 352 272 320
WIRE 128 400 -16 400
WIRE 208 400 128 400
WIRE -16 512 -16 480
WIRE 128 512 128 400
WIRE -128 544 -192 544
WIRE 272 560 272 448
WIRE 272 560 192 560
WIRE -192 576 -192 544
WIRE -128 656 -128 544
WIRE 128 736 128 608
WIRE 128 736 -128 736
WIRE 272 736 272 640
WIRE 272 736 128 736
FLAG -16 512 0
FLAG -112 -160 0
FLAG -192 576 0
FLAG 624 256 0
FLAG -176 256 0
FLAG -32 64 In+
IOPIN -32 64 In
FLAG 528 64 In-
IOPIN 528 64 In
FLAG 32 -96 Out+
IOPIN 32 -96 Out
FLAG 480 -96 Out-
IOPIN 480 -96 Out
FLAG 208 128 Q1e
FLAG 320 128 Q2e
SYMBOL npn 80 80 R0
SYMATTR InstName Q1
SYMBOL npn 448 80 M0
SYMATTR InstName Q2
SYMBOL npn 208 352 R0
SYMATTR InstName Q3
SYMBOL npn 192 512 M0
SYMATTR InstName Q4
SYMBOL res 192 160 R0
SYMATTR InstName R1
SYMATTR Value 10R
SYMBOL res 304 160 R0
SYMATTR InstName R2
SYMATTR Value 10R
SYMBOL res -32 384 R0
SYMATTR InstName R3
SYMATTR Value 10K
SYMBOL res 256 544 R0
SYMATTR InstName R4
SYMATTR Value 150R
SYMBOL res 128 -240 R0
SYMATTR InstName R5
SYMATTR Value 1K
SYMBOL res 368 -240 R0
SYMATTR InstName R6
SYMATTR Value 1K
SYMBOL voltage -112 -320 R0
WINDOW 0 -68 41 Left 2
WINDOW 3 -69 84 Left 2
WINDOW 123 0 0 Left 0
WINDOW 39 0 0 Left 0
SYMATTR InstName V1
SYMATTR Value 25
SYMBOL voltage -128 640 R0
WINDOW 0 -67 25 Left 2
WINDOW 3 -67 78 Left 2
WINDOW 123 0 0 Left 0
WINDOW 39 0 0 Left 0
SYMATTR InstName V2
SYMATTR Value 25
SYMBOL Misc\\signal -176 112 R0
WINDOW 123 0 0 Left 0
WINDOW 39 0 0 Left 0
SYMATTR InstName V3
SYMATTR Value SINE(0 0.001 1K)
SYMBOL Misc\\signal 624 112 R0
WINDOW 123 0 0 Left 0
WINDOW 39 0 0 Left 0
SYMATTR InstName V4
SYMATTR Value SINE(0 0.001 1K 0 0 180)
TEXT -328 312 Left 2 !.tran 1ms
